Version 4
SHEET 1 996 1424
WIRE -336 256 -1200 256
WIRE -496 304 -512 304
WIRE -1200 336 -1200 256
WIRE -1168 336 -1200 336
WIRE -912 352 -1056 352
WIRE -1280 368 -1376 368
WIRE -1232 368 -1280 368
WIRE -912 384 -976 384
WIRE -592 384 -800 384
WIRE -336 384 -336 256
WIRE -336 384 -400 384
WIRE 32 384 -336 384
WIRE 208 384 64 384
WIRE 368 400 320 400
WIRE -912 416 -944 416
WIRE -592 416 -640 416
WIRE 208 416 160 416
WIRE -1328 432 -1776 432
WIRE -976 432 -976 384
WIRE -976 432 -1328 432
WIRE -336 448 -400 448
WIRE 64 448 64 384
WIRE 64 448 -336 448
WIRE -496 528 -512 528
WIRE -336 544 -336 448
WIRE -336 544 -896 544
WIRE 32 560 32 384
WIRE 208 560 32 560
WIRE -944 576 -944 416
WIRE -336 576 -944 576
WIRE 368 576 320 576
WIRE 208 592 32 592
WIRE -896 608 -896 544
WIRE -896 608 -944 608
WIRE -496 608 -512 608
WIRE -1376 640 -1376 368
WIRE -976 640 -1376 640
WIRE -944 656 -944 608
WIRE -912 656 -944 656
WIRE -1376 672 -1376 640
WIRE -1376 672 -1776 672
WIRE 32 672 32 592
WIRE 32 672 -80 672
WIRE -976 688 -976 640
WIRE -912 688 -976 688
WIRE -592 688 -800 688
WIRE -384 688 -400 688
WIRE -192 688 -384 688
WIRE -1328 704 -1328 432
WIRE -1296 704 -1328 704
WIRE -1248 704 -1296 704
WIRE -1152 704 -1184 704
WIRE -912 720 -1040 720
WIRE -1152 736 -1200 736
WIRE -336 752 -336 576
WIRE -336 752 -400 752
WIRE -224 752 -336 752
WIRE -192 752 -192 688
WIRE 160 752 160 416
WIRE 160 752 -192 752
WIRE -224 800 -224 752
WIRE -80 800 -80 672
WIRE -80 800 -224 800
WIRE -496 832 -512 832
WIRE -1616 880 -1760 880
WIRE -1200 880 -1200 736
WIRE -384 880 -384 688
WIRE -384 880 -1200 880
WIRE -1616 944 -1760 944
WIRE -1616 992 -1760 992
FLAG -512 608 VDD
FLAG -512 528 CLR
FLAG -1776 432 A
IOPIN -1776 432 In
FLAG -1776 672 B
IOPIN -1776 672 In
FLAG 368 400 LA
IOPIN 368 400 Out
FLAG 368 576 LB
IOPIN 368 576 Out
FLAG -1760 880 VDD
IOPIN -1760 880 In
FLAG -1616 880 VDD
FLAG -1760 944 CLR
IOPIN -1760 944 In
FLAG -1616 944 CLR
FLAG -512 832 CLR
FLAG -1760 992 CLK
IOPIN -1760 992 In
FLAG -1616 992 CLK
FLAG -640 416 CLK
FLAG -592 720 CLK
FLAG -512 304 VDD
SYMBOL 74HCT\\74hct74 -496 304 R0
SYMATTR InstName U1
SYMBOL 74HCT\\74hct74 -496 608 R0
SYMATTR InstName U3
SYMBOL 74HCT\\74hct08 256 336 R0
SYMATTR InstName U11
SYMBOL 74HCT\\74hct08 256 512 R0
SYMATTR InstName U12
SYMBOL 74HCT\\74hct11 -864 304 R0
SYMATTR InstName U2
SYMBOL 74HCT\\74hct32 -1120 288 R0
SYMATTR InstName U4
SYMBOL 74HCT\\74hct11 -864 608 R0
SYMATTR InstName U6
SYMBOL 74HCT\\74hct32 -1104 656 R0
SYMATTR InstName U7
SYMBOL 74HCT\\74hct04.i -1232 320 R0
SYMATTR InstName U8
SYMBOL 74HCT\\74hct04.i -1248 656 R0
SYMATTR InstName U9
TEXT -1912 -104 Left 2 !.tran 0 20m 0 1u
TEXT -1912 -152 Left 2 !.include 90nm_bulk.txt
TEXT -1912 -56 Left 2 !.lib 74hct.lib
TEXT -1912 -8 Left 2 !.lib dview.lib
