Version 4
SHEET 1 1316 916
WIRE 688 0 -96 0
WIRE -256 32 -640 32
WIRE -96 64 -96 0
WIRE -32 64 -96 64
WIRE -16 64 -32 64
WIRE 96 80 80 80
WIRE 112 80 96 80
WIRE -256 96 -256 32
WIRE -160 96 -256 96
WIRE -32 96 -160 96
WIRE 112 112 112 80
WIRE 144 112 112 112
WIRE 352 112 272 112
WIRE 688 112 688 0
WIRE 688 112 352 112
WIRE 144 176 112 176
WIRE 352 176 272 176
WIRE 416 176 352 176
WIRE -160 192 -272 192
WIRE -32 192 -160 192
WIRE 96 208 80 208
WIRE 112 208 112 176
WIRE 112 208 96 208
WIRE -32 224 -96 224
WIRE -16 224 -32 224
WIRE -272 240 -272 192
WIRE -272 240 -640 240
WIRE 416 240 416 176
WIRE 688 240 416 240
WIRE 144 256 112 256
WIRE 320 256 272 256
WIRE -96 320 -96 224
WIRE 688 320 688 240
WIRE 688 320 -96 320
FLAG -160 96 A
FLAG -160 192 B
FLAG 208 64 VDD
FLAG -96 -208 VDD
FLAG 32 -208 reset
FLAG 320 256 reset
FLAG 112 256 clk
FLAG -640 320 0
FLAG -560 -112 0
FLAG -96 -128 0
FLAG 32 -128 0
FLAG 352 112 LA
FLAG 352 176 LB
FLAG -640 112 0
FLAG 96 80 ABus
FLAG 96 208 BBus
FLAG -560 -192 clk
SYMBOL ka 208 160 R0
SYMATTR InstName X1
SYMBOL voltage -96 -224 R0
WINDOW 123 0 0 Left 2
WINDOW 39 0 0 Left 2
SYMATTR InstName V1
SYMATTR Value 5
SYMBOL voltage 32 -224 R0
SYMATTR InstName V2
SYMATTR Value PULSE(0 5 1m 10n 10n 100m 1)
SYMBOL voltage -560 -208 R0
SYMATTR InstName V3
SYMATTR Value PULSE(0 5 0 10n 10n 0.5m 1m)
SYMBOL voltage -640 224 R0
WINDOW 123 0 0 Left 2
WINDOW 39 0 0 Left 2
SYMATTR InstName B-Device
SYMATTR Value PULSE(0 5 0 10n 10n 8m 16m)
SYMBOL voltage -640 16 R0
WINDOW 123 0 0 Left 2
WINDOW 39 0 0 Left 2
SYMATTR InstName B1
SYMATTR Value PULSE(0 5 0 10n 10n 4m 8m)
SYMBOL 74HCT\\74hct32 16 16 R0
SYMATTR InstName U1
SYMBOL 74HCT\\74hct32 16 144 R0
SYMATTR InstName U2
TEXT -104 -480 Left 2 !.tran 0 30m 0 1u
TEXT -104 -432 Left 2 !.lib 74hct.lib
TEXT -104 -384 Left 2 !.lib dview.lib
