Version 4
SHEET 1 880 680
WIRE 176 -256 176 -272
WIRE 176 -176 160 -176
WIRE 240 -176 176 -176
WIRE 144 -16 -416 -16
WIRE 240 16 240 -176
WIRE 256 16 240 16
WIRE 160 32 160 -176
WIRE 144 48 144 -16
WIRE 192 64 176 64
WIRE 256 80 256 16
WIRE -416 96 -416 64
WIRE 240 96 240 16
WIRE 672 112 272 112
WIRE 752 112 672 112
WIRE 192 128 192 64
WIRE 240 128 192 128
WIRE 144 144 144 80
WIRE 144 144 -416 144
WIRE 672 160 672 112
WIRE 752 160 752 112
WIRE -416 176 -416 144
WIRE 672 272 672 224
WIRE 752 272 752 240
WIRE -416 288 -416 256
FLAG -416 96 0
FLAG -416 288 0
FLAG 672 272 0
FLAG 752 272 0
FLAG 176 -272 0
SYMBOL voltage -416 160 R0
WINDOW 123 0 0 Left 2
WINDOW 39 0 0 Left 2
SYMATTR InstName V1
SYMATTR Value PULSE(0 1 1n 10p 10p 4n 8n)
SYMBOL voltage -416 -32 R0
WINDOW 123 0 0 Left 2
WINDOW 39 0 0 Left 2
SYMATTR InstName V2
SYMATTR Value PULSE(0 1 1n 10p 10p 2n 4n)
SYMBOL res 736 144 R0
SYMATTR InstName R1
SYMATTR Value 100K
SYMBOL cap 656 160 R0
SYMATTR InstName C1
SYMATTR Value 100F
SYMBOL voltage 176 -160 R180
WINDOW 123 0 0 Left 2
WINDOW 39 0 0 Left 2
SYMATTR InstName V3
SYMATTR Value 1
SYMBOL and 160 64 R0
SYMATTR InstName X1
SYMBOL and 256 112 R0
SYMATTR InstName X2
TEXT -432 -184 Left 2 !.include 90nm_bulk.txt
TEXT -424 -136 Left 2 !.tran 0 9n 0 1p
