Version 4
SHEET 1 880 680
WIRE 176 -256 176 -272
WIRE 176 -176 160 -176
WIRE 208 -176 176 -176
WIRE 256 -176 208 -176
WIRE 288 -176 256 -176
WIRE 288 -128 288 -176
WIRE 272 -112 176 -112
WIRE 544 -96 304 -96
WIRE 208 -80 208 -176
WIRE 272 -80 208 -80
WIRE 144 -16 -416 -16
WIRE 256 -16 256 -176
WIRE 288 -16 256 -16
WIRE 272 0 224 0
WIRE 544 16 544 -96
WIRE 544 16 304 16
WIRE 160 32 160 -176
WIRE 208 32 208 -80
WIRE 272 32 208 32
WIRE 144 48 144 -16
WIRE 176 64 176 -112
WIRE 224 64 224 0
WIRE 224 64 176 64
WIRE -416 96 -416 64
WIRE 256 96 256 -16
WIRE 288 96 256 96
WIRE 672 96 672 64
WIRE 672 96 640 96
WIRE 176 112 176 64
WIRE 272 112 176 112
WIRE 544 112 544 16
WIRE 640 112 640 96
WIRE 640 112 544 112
WIRE 672 112 672 96
WIRE 752 112 672 112
WIRE 544 128 544 112
WIRE 544 128 304 128
WIRE 144 144 144 80
WIRE 144 144 -416 144
WIRE 208 144 208 32
WIRE 272 144 208 144
WIRE 672 160 672 112
WIRE 752 160 752 112
WIRE -416 176 -416 144
WIRE 256 208 256 96
WIRE 288 208 256 208
WIRE 176 224 176 112
WIRE 272 224 176 224
WIRE 544 240 544 128
WIRE 544 240 304 240
WIRE 208 256 208 144
WIRE 272 256 208 256
WIRE 672 272 672 224
WIRE 752 272 752 240
WIRE -416 288 -416 256
FLAG -416 96 0
FLAG -416 288 0
FLAG 672 272 0
FLAG 752 272 0
FLAG 176 -272 0
SYMBOL voltage -416 160 R0
WINDOW 123 0 0 Left 2
WINDOW 39 0 0 Left 2
SYMATTR InstName V1
SYMATTR Value PULSE(0 1 1n 10p 10p 4n 8n)
SYMBOL voltage -416 -32 R0
WINDOW 123 0 0 Left 2
WINDOW 39 0 0 Left 2
SYMATTR InstName V2
SYMATTR Value PULSE(0 1 1n 10p 10p 2n 4n)
SYMBOL res 736 144 R0
SYMATTR InstName R1
SYMATTR Value 100K
SYMBOL cap 656 160 R0
SYMATTR InstName C1
SYMATTR Value 100F
SYMBOL voltage 176 -160 R180
WINDOW 123 0 0 Left 2
WINDOW 39 0 0 Left 2
SYMATTR InstName V3
SYMATTR Value 1
SYMBOL and 160 64 R0
SYMATTR InstName X1
SYMBOL and 288 -96 R0
SYMATTR InstName X2
SYMBOL and 288 16 R0
SYMATTR InstName X3
SYMBOL and 288 128 R0
SYMATTR InstName X4
SYMBOL and 288 240 R0
SYMATTR InstName X5
TEXT -432 -184 Left 2 !.include 90nm_bulk.txt
TEXT -424 -136 Left 2 !.tran 0 9n 0 1p
