Version 4
SHEET 1 968 680
WIRE 336 -128 336 -144
WIRE 336 -16 336 -48
WIRE 336 -16 240 -16
WIRE 80 64 -208 64
WIRE 96 64 80 64
WIRE 240 80 240 -16
WIRE 240 80 176 80
WIRE 96 96 96 64
WIRE 160 96 96 96
WIRE 304 96 192 96
WIRE 80 112 80 64
WIRE 160 112 80 112
WIRE -208 176 -208 144
WIRE 112 224 -208 224
WIRE 176 224 112 224
WIRE 240 224 240 80
WIRE 240 224 192 224
WIRE 336 224 336 -16
WIRE 176 240 176 224
WIRE 256 240 208 240
WIRE 304 240 304 96
WIRE 320 240 304 240
WIRE 448 240 352 240
WIRE -208 256 -208 224
WIRE 112 256 112 224
WIRE 176 256 112 256
WIRE 256 256 256 240
WIRE 320 256 256 256
WIRE 448 256 448 240
WIRE 800 256 448 256
WIRE 880 256 800 256
WIRE 800 304 800 256
WIRE 880 304 880 256
WIRE -208 368 -208 336
WIRE 240 368 240 224
WIRE 240 368 192 368
WIRE 176 384 112 384
WIRE 336 384 336 256
WIRE 336 384 208 384
WIRE 112 400 112 384
WIRE 176 400 112 400
WIRE 800 416 800 368
WIRE 880 416 880 384
WIRE 112 432 112 400
WIRE 112 432 -208 432
WIRE -208 544 -208 512
FLAG 336 -144 0
FLAG -208 176 0
FLAG -208 368 0
FLAG 800 416 0
FLAG 880 416 0
FLAG -208 544 0
SYMBOL voltage 336 -32 R180
WINDOW 123 0 0 Left 2
WINDOW 39 0 0 Left 2
SYMATTR InstName V1
SYMATTR Value 1
SYMBOL res 864 288 R0
SYMATTR InstName R1
SYMATTR Value 100K
SYMBOL cap 784 304 R0
SYMATTR InstName C1
SYMATTR Value 100F
SYMBOL voltage -208 240 R0
WINDOW 123 0 0 Left 2
WINDOW 39 0 0 Left 2
SYMATTR InstName V2
SYMATTR Value PULSE(0 1 1n 10p 10p 4n 8n)
SYMBOL voltage -208 48 R0
WINDOW 123 0 0 Left 2
WINDOW 39 0 0 Left 2
SYMATTR InstName V3
SYMATTR Value PULSE(0 1 1n 10p 10p 2n 4n)
SYMBOL voltage -208 416 R0
WINDOW 123 0 0 Left 2
WINDOW 39 0 0 Left 2
SYMATTR InstName V4
SYMATTR Value PULSE(0 1 1n 10p 10p 8n 16n)
SYMBOL nor 192 96 R0
SYMATTR InstName X1
SYMBOL nor 208 240 R0
SYMATTR InstName X2
SYMBOL nor 208 384 R0
SYMATTR InstName X3
SYMBOL nor3 352 240 R0
SYMATTR InstName X4
TEXT -288 -88 Left 2 !.include 90nm_bulk.txt
TEXT -280 -40 Left 2 !.tran 0 32n 0 1p
