Version 4
SHEET 1 880 680
WIRE 256 -128 256 -144
WIRE 144 80 96 80
WIRE 240 80 208 80
WIRE 256 96 256 -48
WIRE 272 96 256 96
WIRE 272 112 256 112
WIRE 448 112 416 112
WIRE 256 128 256 112
WIRE 272 128 256 128
WIRE 416 128 416 112
WIRE 416 128 400 128
WIRE 256 144 256 128
WIRE 272 144 256 144
WIRE 448 144 400 144
WIRE 144 160 96 160
WIRE 224 160 208 160
WIRE 240 160 240 80
WIRE 272 160 240 160
WIRE 432 160 400 160
WIRE 224 176 224 160
WIRE 272 176 224 176
WIRE 416 176 400 176
WIRE 432 176 432 160
WIRE 448 176 432 176
WIRE 272 192 224 192
WIRE 272 208 240 208
WIRE 416 208 416 176
WIRE 448 208 416 208
WIRE 256 224 256 144
WIRE 272 224 256 224
WIRE 144 240 96 240
WIRE 224 240 224 192
WIRE 224 240 208 240
WIRE 400 240 400 192
WIRE 448 240 400 240
WIRE 144 320 96 320
WIRE 240 320 240 208
WIRE 240 320 208 320
WIRE 256 336 256 224
FLAG 256 -144 0
FLAG 96 80 A0
IOPIN 96 80 In
FLAG 96 160 A1
IOPIN 96 160 In
FLAG 96 240 A2
IOPIN 96 240 In
FLAG 96 320 A3
IOPIN 96 320 In
FLAG 448 112 S0
IOPIN 448 112 Out
FLAG 448 144 S1
IOPIN 448 144 Out
FLAG 448 176 S2
IOPIN 448 176 Out
FLAG 448 208 S3
IOPIN 448 208 Out
FLAG 448 240 COUT
IOPIN 448 240 Out
FLAG 256 336 0
SYMBOL Digital\\inv 144 16 R0
SYMATTR InstName A1
SYMBOL Digital\\inv 144 96 R0
SYMATTR InstName A2
SYMBOL Digital\\inv 144 176 R0
SYMATTR InstName A3
SYMBOL Digital\\inv 144 256 R0
SYMATTR InstName A4
SYMBOL voltage 256 -32 R180
WINDOW 123 0 0 Left 2
WINDOW 39 0 0 Left 2
SYMATTR InstName V1
SYMATTR Value 1
SYMBOL SUM4 352 160 R0
SYMATTR InstName X1
