Version 4
SHEET 1 1272 756
WIRE -496 -384 -608 -384
WIRE -320 -384 -496 -384
WIRE -608 -368 -608 -384
WIRE -512 -368 -608 -368
WIRE -336 -368 -512 -368
WIRE -768 -352 -784 -352
WIRE -640 -352 -688 -352
WIRE -608 -352 -608 -368
WIRE -608 -352 -640 -352
WIRE -528 -352 -608 -352
WIRE -352 -352 -528 -352
WIRE -544 -336 -608 -336
WIRE -368 -336 -544 -336
WIRE -768 -272 -784 -272
WIRE -608 -272 -608 -336
WIRE -608 -272 -688 -272
WIRE -320 -256 -320 -384
WIRE -240 -256 -320 -256
WIRE -336 -240 -336 -368
WIRE -240 -240 -336 -240
WIRE -352 -224 -352 -352
WIRE -240 -224 -352 -224
WIRE 16 -224 -112 -224
WIRE -368 -208 -368 -336
WIRE -240 -208 -368 -208
WIRE 0 -208 -112 -208
WIRE -640 -192 -640 -352
WIRE -256 -192 -640 -192
WIRE -240 -192 -256 -192
WIRE -16 -192 -112 -192
WIRE -608 -176 -608 -272
WIRE -240 -176 -608 -176
WIRE -32 -176 -112 -176
WIRE -256 -160 -256 -192
WIRE -240 -160 -256 -160
WIRE -48 -160 -112 -160
WIRE -256 -144 -256 -160
WIRE -240 -144 -256 -144
WIRE -256 -128 -256 -144
WIRE -240 -128 -256 -128
WIRE -768 -112 -784 -112
WIRE -624 -112 -688 -112
WIRE -272 -112 -624 -112
WIRE -288 -96 -1200 -96
WIRE -1200 -80 -1200 -96
WIRE -624 -80 -624 -112
WIRE -304 -80 -624 -80
WIRE -320 -64 -640 -64
WIRE 16 -32 16 -224
WIRE 64 -32 16 -32
WIRE -768 -16 -784 -16
WIRE -640 -16 -640 -64
WIRE -640 -16 -688 -16
WIRE 0 -16 0 -208
WIRE 64 -16 0 -16
WIRE -16 0 -16 -192
WIRE 64 0 -16 0
WIRE 288 0 192 0
WIRE -1200 16 -1200 0
WIRE -32 16 -32 -176
WIRE 64 16 -32 16
WIRE 288 16 192 16
WIRE -272 32 -272 -112
WIRE -176 32 -272 32
WIRE 64 32 -32 32
WIRE 288 32 192 32
WIRE -288 48 -288 -96
WIRE -176 48 -288 48
WIRE 64 48 -16 48
WIRE 288 48 192 48
WIRE -304 64 -304 -80
WIRE -176 64 -304 64
WIRE 64 64 0 64
WIRE -320 80 -320 -64
WIRE -176 80 -320 80
WIRE 64 80 16 80
WIRE 64 96 -64 96
WIRE -176 112 -256 112
WIRE -176 128 -240 128
WIRE -176 144 -224 144
WIRE -176 160 -208 160
WIRE -496 288 -496 -384
WIRE -480 288 -496 288
WIRE -256 288 -256 112
WIRE -256 288 -352 288
WIRE -192 288 -256 288
WIRE -512 304 -512 -368
WIRE -480 304 -512 304
WIRE -240 304 -240 128
WIRE -240 304 -352 304
WIRE -192 304 -240 304
WIRE -528 320 -528 -352
WIRE -480 320 -528 320
WIRE -224 320 -224 144
WIRE -224 320 -352 320
WIRE -192 320 -224 320
WIRE -32 320 -32 32
WIRE -32 320 -64 320
WIRE -544 336 -544 -336
WIRE -480 336 -544 336
WIRE -208 336 -208 160
WIRE -208 336 -352 336
WIRE -192 336 -208 336
WIRE -16 336 -16 48
WIRE -16 336 -64 336
WIRE -336 352 -352 352
WIRE -272 352 -272 32
WIRE -192 352 -272 352
WIRE 0 352 0 64
WIRE 0 352 -64 352
WIRE -288 368 -288 48
WIRE -192 368 -288 368
WIRE 16 368 16 80
WIRE 16 368 -64 368
WIRE -304 384 -304 64
WIRE -192 384 -304 384
WIRE -48 384 -48 -160
WIRE -48 384 -64 384
WIRE -320 400 -320 80
WIRE -192 400 -320 400
WIRE -336 416 -336 352
WIRE -192 416 -336 416
WIRE -48 464 -48 384
FLAG -784 -272 0
FLAG -784 -352 0
FLAG -784 -16 0
FLAG -784 -112 0
FLAG -48 464 0
FLAG -1200 16 0
SYMBOL SUM4 -160 -192 R0
SYMATTR InstName X1
SYMBOL SUM4 -112 352 R0
SYMATTR InstName X2
SYMBOL comparator -128 96 R0
SYMATTR InstName X4
SYMBOL voltage -672 -272 R90
WINDOW 123 0 0 Left 2
WINDOW 39 0 0 Left 2
SYMATTR InstName V1
SYMATTR Value 1
SYMBOL voltage -672 -352 R90
WINDOW 123 0 0 Left 2
WINDOW 39 0 0 Left 2
SYMATTR InstName V2
SYMATTR Value 0
SYMBOL voltage -672 -16 R90
WINDOW 123 0 0 Left 2
WINDOW 39 0 0 Left 2
SYMATTR InstName V3
SYMATTR Value 1
SYMBOL voltage -672 -112 R90
WINDOW 123 0 0 Left 2
WINDOW 39 0 0 Left 2
SYMATTR InstName V4
SYMATTR Value 0
SYMBOL Multy 144 32 R0
SYMATTR InstName X5
SYMBOL DopCode -400 336 R0
SYMATTR InstName X3
SYMBOL voltage -1200 -96 R0
WINDOW 123 0 0 Left 2
WINDOW 39 0 0 Left 2
SYMATTR InstName V5
SYMATTR Value PULSE(0 1 1p 10p 10p 2n 4n)
TEXT 640 -336 Left 2 !.include 90nm_bulk.txt
TEXT 648 -288 Left 2 !.tran 0 32n 0 1p
TEXT -632 -416 Left 2 ;X2=8
TEXT -656 -144 Left 2 ;X1=A
