Version 4
SHEET 1 880 680
WIRE 400 64 128 64
WIRE 736 64 528 64
WIRE 400 96 352 96
WIRE 560 96 528 96
WIRE 192 144 128 144
WIRE 560 144 560 96
WIRE 624 144 560 144
WIRE 736 144 688 144
WIRE 192 160 192 144
WIRE 208 160 192 160
WIRE 352 160 352 96
WIRE 352 160 336 160
WIRE 624 176 560 176
WIRE 208 192 192 192
WIRE 560 192 560 176
WIRE 560 192 336 192
WIRE 192 224 192 192
WIRE 192 224 128 224
FLAG 128 144 A
IOPIN 128 144 In
FLAG 128 224 B
IOPIN 128 224 In
FLAG 128 64 CIN
IOPIN 128 64 In
FLAG 736 144 COUT
IOPIN 736 144 Out
FLAG 736 64 S
IOPIN 736 64 Out
SYMBOL halfsum 240 176 R0
SYMATTR InstName X1
SYMBOL halfsum 432 80 R0
SYMATTR InstName X2
SYMBOL Digital\\or 656 96 R0
SYMATTR InstName A1
