Version 4
SHEET 1 1664 1128
WIRE 384 -368 384 -384
WIRE 384 -256 384 -288
WIRE 496 -256 384 -256
WIRE 496 -16 496 -256
WIRE 496 -16 176 -16
WIRE 176 16 176 -16
WIRE 160 32 0 32
WIRE 304 48 208 48
WIRE 48 64 -208 64
WIRE 160 64 48 64
WIRE 496 112 496 -16
WIRE 656 112 496 112
WIRE 912 112 656 112
WIRE 1216 112 912 112
WIRE 496 160 496 112
WIRE 496 160 400 160
WIRE -208 176 -208 144
WIRE 496 176 496 160
WIRE 496 176 176 176
WIRE 176 224 176 176
WIRE 400 224 400 160
WIRE 656 224 656 112
WIRE 912 224 912 112
WIRE 48 240 48 64
WIRE 160 240 48 240
WIRE 304 240 304 48
WIRE 384 240 304 240
WIRE 640 240 528 240
WIRE 896 240 736 240
WIRE 0 256 0 32
WIRE 0 256 -208 256
WIRE 384 256 208 256
WIRE 528 256 528 240
WIRE 528 256 432 256
WIRE 736 256 736 240
WIRE 736 256 688 256
WIRE 1088 256 944 256
WIRE 160 272 112 272
WIRE 384 272 336 272
WIRE 640 272 608 272
WIRE 896 272 832 272
WIRE 1216 336 1216 112
WIRE 1088 352 1088 256
WIRE 1200 352 1088 352
WIRE -208 368 -208 336
WIRE 496 368 496 176
WIRE 496 368 176 368
WIRE 1360 368 1248 368
WIRE 1200 384 1168 384
WIRE 176 400 176 368
WIRE 112 416 112 272
WIRE 160 416 112 416
WIRE 112 432 112 416
WIRE 112 432 -208 432
WIRE 336 432 336 272
WIRE 336 432 208 432
WIRE 0 448 0 256
WIRE 160 448 0 448
WIRE 496 464 496 368
WIRE 496 464 400 464
WIRE 400 512 400 464
WIRE 0 528 0 448
WIRE 384 528 0 528
WIRE -208 544 -208 512
WIRE 48 544 48 240
WIRE 384 544 48 544
WIRE 832 544 832 272
WIRE 832 544 432 544
WIRE 112 560 112 432
WIRE 384 560 112 560
WIRE 496 640 496 464
WIRE 496 640 416 640
WIRE 976 640 496 640
WIRE 416 688 416 640
WIRE 0 704 0 528
WIRE 400 704 0 704
WIRE 48 720 48 544
WIRE 400 720 48 720
WIRE 880 720 448 720
WIRE 112 736 112 560
WIRE 400 736 112 736
WIRE 272 768 208 768
WIRE 496 768 496 640
WIRE 496 768 272 768
WIRE 208 800 208 768
WIRE -16 816 -208 816
WIRE 192 816 -16 816
WIRE 976 816 976 640
WIRE 960 832 240 832
WIRE 192 848 128 848
WIRE 1168 848 1168 384
WIRE 1168 848 1008 848
WIRE 880 864 880 720
WIRE 960 864 880 864
WIRE -208 928 -208 896
WIRE 272 960 272 768
WIRE 272 960 208 960
WIRE 128 976 128 848
WIRE 128 976 -208 976
WIRE 208 992 208 960
WIRE -16 1008 -16 816
WIRE 192 1008 -16 1008
WIRE 608 1024 608 272
WIRE 608 1024 240 1024
WIRE 128 1040 128 976
WIRE 192 1040 128 1040
WIRE -208 1088 -208 1056
WIRE 0 0 0 0
FLAG 384 -384 0
FLAG -208 176 0
FLAG -208 368 0
FLAG -208 544 0
FLAG -208 928 0
FLAG -208 1088 0
SYMBOL voltage 384 -272 R180
WINDOW 123 0 0 Left 2
WINDOW 39 0 0 Left 2
SYMATTR InstName V1
SYMATTR Value 1
SYMBOL voltage -208 240 R0
WINDOW 123 0 0 Left 2
WINDOW 39 0 0 Left 2
SYMATTR InstName V2
SYMATTR Value PULSE(0 1 1n 10p 10p 4n 8n)
SYMBOL voltage -208 48 R0
WINDOW 123 0 0 Left 2
WINDOW 39 0 0 Left 2
SYMATTR InstName V3
SYMATTR Value PULSE(0 1 1n 10p 10p 2n 4n)
SYMBOL voltage -208 416 R0
WINDOW 123 0 0 Left 2
WINDOW 39 0 0 Left 2
SYMATTR InstName V4
SYMATTR Value PULSE(0 1 1n 10p 10p 8n 16n)
SYMBOL voltage -208 800 R0
WINDOW 123 0 0 Left 2
WINDOW 39 0 0 Left 2
SYMATTR InstName V5
SYMATTR Value PULSE(0 1 1n 10p 10p 16n 32n)
SYMBOL voltage -208 960 R0
WINDOW 123 0 0 Left 2
WINDOW 39 0 0 Left 2
SYMATTR InstName V6
SYMATTR Value PULSE(0 1 1n 10p 10p 32n 64n)
SYMBOL and 192 432 R0
SYMATTR InstName X1
SYMBOL and 192 256 R0
SYMATTR InstName X2
SYMBOL and 192 48 R0
SYMATTR InstName X3
SYMBOL and 224 832 R0
SYMATTR InstName X4
SYMBOL and 992 848 R0
SYMATTR InstName X5
SYMBOL and 672 256 R0
SYMATTR InstName X6
SYMBOL and3 416 544 R0
SYMATTR InstName X9
SYMBOL or 208 1024 R0
SYMATTR InstName X10
SYMBOL or 912 256 R0
SYMATTR InstName X11
SYMBOL or 1216 368 R0
SYMATTR InstName X13
SYMBOL or3 416 720 R0
SYMATTR InstName X14
SYMBOL or3 400 256 R0
SYMATTR InstName X15
TEXT -288 -88 Left 2 !.include 90nm_bulk.txt
TEXT -280 -40 Left 2 !.tran 0 64n 0 1p
