Version 4
SHEET 1 1244 680
WIRE 96 128 -96 128
WIRE 384 128 304 128
WIRE 672 128 608 128
WIRE 944 128 864 128
WIRE 304 144 304 128
WIRE 304 144 224 144
WIRE 608 144 608 128
WIRE 608 144 512 144
WIRE 864 144 864 128
WIRE 864 144 800 144
WIRE 1104 144 1104 16
WIRE 1104 144 1072 144
WIRE 96 176 -16 176
WIRE 384 176 320 176
WIRE 672 176 576 176
WIRE 944 176 864 176
WIRE 288 192 288 16
WIRE 288 192 224 192
WIRE 560 192 560 16
WIRE 560 192 512 192
WIRE 832 192 832 16
WIRE 832 192 800 192
WIRE 1168 192 1168 16
WIRE 1168 192 1072 192
WIRE 96 208 48 208
WIRE 384 208 368 208
WIRE 672 208 624 208
WIRE 944 208 912 208
WIRE -96 320 -96 128
WIRE -16 320 -16 176
WIRE 48 320 48 208
WIRE 320 320 320 176
WIRE 368 320 368 208
WIRE 576 320 576 176
WIRE 624 320 624 208
WIRE 864 320 864 176
WIRE 912 320 912 208
FLAG -16 320 A0
IOPIN -16 320 In
FLAG 320 320 A1
IOPIN 320 320 In
FLAG 576 320 A2
IOPIN 576 320 In
FLAG 864 320 A3
IOPIN 864 320 In
FLAG -96 320 CIN
IOPIN -96 320 In
FLAG 48 320 B0
IOPIN 48 320 In
FLAG 368 320 B1
IOPIN 368 320 In
FLAG 624 320 B2
IOPIN 624 320 In
FLAG 912 320 B3
IOPIN 912 320 In
FLAG 288 16 S0
IOPIN 288 16 Out
FLAG 560 16 S1
IOPIN 560 16 Out
FLAG 832 16 S2
IOPIN 832 16 Out
FLAG 1104 16 COUT
IOPIN 1104 16 Out
FLAG 1168 16 S3
IOPIN 1168 16 Out
SYMBOL fullsum 160 160 R0
SYMATTR InstName X1
SYMBOL fullsum 448 160 R0
SYMATTR InstName X2
SYMBOL fullsum 736 160 R0
SYMATTR InstName X3
SYMBOL fullsum 1008 160 R0
SYMATTR InstName X4
