Version 4
SHEET 1 1984 940
WIRE 1664 -144 688 -144
WIRE 688 -112 688 -144
WIRE 752 -112 688 -112
WIRE 400 -64 288 -64
WIRE 688 -64 688 -112
WIRE 688 -64 400 -64
WIRE 288 0 288 -64
WIRE 544 0 288 0
WIRE 80 16 64 16
WIRE 160 16 80 16
WIRE 688 16 688 -64
WIRE 688 16 160 16
WIRE 752 16 688 16
WIRE 800 16 752 16
WIRE 944 16 800 16
WIRE 1040 16 944 16
WIRE 1360 16 1040 16
WIRE 272 64 -192 64
WIRE 288 64 288 0
WIRE 272 96 -112 96
WIRE 320 96 320 80
WIRE 384 96 320 96
WIRE 400 96 400 -64
WIRE 640 112 432 112
WIRE 752 112 752 16
WIRE 384 128 -96 128
WIRE 1040 128 1040 16
WIRE 640 160 640 112
WIRE 832 192 816 192
WIRE 912 192 832 192
WIRE 1248 192 1152 192
WIRE 400 208 288 208
WIRE 480 208 400 208
WIRE 544 208 544 0
WIRE 544 208 480 208
WIRE 272 224 -192 224
WIRE 288 224 288 208
WIRE -112 256 -112 96
WIRE 272 256 -112 256
WIRE 320 256 320 240
WIRE 384 256 320 256
WIRE 400 256 400 208
WIRE 1360 256 1360 16
WIRE 640 272 640 224
WIRE 640 272 432 272
WIRE 1664 272 1664 -144
WIRE 384 288 208 288
WIRE 1664 288 1664 272
WIRE 1248 304 1248 192
WIRE 1536 336 1440 336
WIRE 1904 336 1776 336
WIRE 400 352 288 352
WIRE 480 352 480 208
WIRE 480 352 400 352
WIRE 272 368 -288 368
WIRE 288 368 288 352
WIRE 272 400 192 400
WIRE 800 400 800 16
WIRE 800 400 768 400
WIRE 320 416 320 384
WIRE 384 416 320 416
WIRE 400 416 400 352
WIRE 944 416 944 16
WIRE 1056 416 944 416
WIRE 656 432 432 432
WIRE -96 448 -96 128
WIRE 384 448 -96 448
WIRE 656 448 656 432
WIRE 272 480 -288 480
WIRE 400 480 288 480
WIRE 480 480 480 352
WIRE 480 480 400 480
WIRE 928 480 848 480
WIRE 1248 480 1248 368
WIRE 1248 480 1168 480
WIRE 192 512 192 400
WIRE 272 512 192 512
WIRE 320 528 320 496
WIRE 384 528 320 528
WIRE 400 528 400 480
WIRE 656 544 656 512
WIRE 656 544 432 544
WIRE 208 560 208 288
WIRE 384 560 208 560
WIRE 80 656 80 16
WIRE -112 720 -112 256
WIRE -112 720 -192 720
WIRE -48 720 -112 720
WIRE 192 720 192 512
WIRE 160 816 160 16
WIRE 160 816 80 816
WIRE -96 880 -96 448
WIRE -96 880 -192 880
WIRE -48 880 -96 880
WIRE 208 880 208 560
WIRE 208 880 192 880
FLAG -192 64 X0
IOPIN -192 64 In
FLAG -192 224 X1
IOPIN -192 224 In
FLAG -288 368 X2
IOPIN -288 368 In
FLAG -288 480 X3
IOPIN -288 480 In
FLAG -192 720 A0
IOPIN -192 720 In
FLAG -192 880 A1
IOPIN -192 880 In
FLAG 1904 336 Y
IOPIN 1904 336 Out
FLAG 752 -112 VDD
IOPIN 752 -112 In
SYMBOL and 272 80 R0
SYMATTR InstName X1
SYMBOL and 384 112 R0
SYMATTR InstName X3
SYMBOL and 272 240 R0
SYMATTR InstName X2
SYMBOL and 384 272 R0
SYMATTR InstName X4
SYMBOL and 272 384 R0
SYMATTR InstName X5
SYMBOL and 384 432 R0
SYMATTR InstName X6
SYMBOL and 272 496 R0
SYMATTR InstName X7
SYMBOL and 384 544 R0
SYMATTR InstName X8
SYMBOL inverter 64 720 R0
SYMATTR InstName X9
SYMBOL inverter 64 880 R0
SYMATTR InstName X10
SYMBOL nor-2 736 176 R0
SYMATTR InstName X11
SYMBOL nor-2 752 464 R0
SYMATTR InstName X12
SYMBOL nor-2 1344 320 R0
SYMATTR InstName X13
SYMBOL inverter 1024 192 R0
SYMATTR InstName X14
SYMBOL inverter 1040 480 R0
SYMATTR InstName X15
SYMBOL inverter 1648 336 R0
SYMATTR InstName X16
TEXT 784 720 Left 2 !.include 90nm_bulk.txt
TEXT 800 784 Left 2 !.tran 0 8n 0 1p
