Version 4
SHEET 1 880 680
WIRE -2080 -1280 -2224 -1280
WIRE -1936 -1280 -2080 -1280
WIRE -1664 -1280 -1936 -1280
WIRE -1472 -1280 -1664 -1280
WIRE -1200 -1280 -1472 -1280
WIRE -1008 -1280 -1200 -1280
WIRE -752 -1280 -1008 -1280
WIRE -1200 -1264 -1200 -1280
WIRE -752 -1264 -752 -1280
WIRE -2384 -1248 -2592 -1248
WIRE -2224 -1248 -2224 -1280
WIRE -2224 -1248 -2384 -1248
WIRE -2144 -1232 -2208 -1232
WIRE -1728 -1232 -1792 -1232
WIRE -1952 -1216 -2016 -1216
WIRE -1536 -1216 -1600 -1216
WIRE -1264 -1216 -1360 -1216
WIRE -816 -1216 -912 -1216
WIRE -2192 -1200 -2256 -1200
WIRE -2144 -1200 -2160 -1200
WIRE -1776 -1200 -1840 -1200
WIRE -1728 -1200 -1744 -1200
WIRE -1040 -1200 -1136 -1200
WIRE -624 -1200 -688 -1200
WIRE -2384 -1184 -2384 -1248
WIRE -2320 -1184 -2384 -1184
WIRE -1984 -1184 -2016 -1184
WIRE -1936 -1184 -1936 -1280
WIRE -1904 -1184 -1936 -1184
WIRE -1504 -1184 -1600 -1184
WIRE -1312 -1184 -1376 -1184
WIRE -1264 -1184 -1296 -1184
WIRE -1008 -1184 -1008 -1280
WIRE -992 -1184 -1008 -1184
WIRE -848 -1184 -928 -1184
WIRE -816 -1184 -832 -1184
WIRE -2320 -1168 -2352 -1168
WIRE -2208 -1168 -2208 -1232
WIRE -2208 -1168 -2240 -1168
WIRE -2192 -1168 -2192 -1200
WIRE -2144 -1168 -2192 -1168
WIRE -1904 -1168 -1936 -1168
WIRE -1792 -1168 -1792 -1232
WIRE -1792 -1168 -1824 -1168
WIRE -1776 -1168 -1776 -1200
WIRE -1728 -1168 -1776 -1168
WIRE -1472 -1168 -1472 -1280
WIRE -1440 -1168 -1472 -1168
WIRE -992 -1168 -1008 -1168
WIRE -1440 -1152 -1472 -1152
WIRE -1360 -1152 -1360 -1216
WIRE -1312 -1152 -1312 -1184
WIRE -1264 -1152 -1312 -1152
WIRE -912 -1152 -912 -1216
WIRE -848 -1152 -848 -1184
WIRE -816 -1152 -848 -1152
WIRE -1936 -1120 -1936 -1168
WIRE -1536 -1120 -1536 -1216
WIRE -1536 -1120 -1936 -1120
WIRE -2352 -1088 -2352 -1168
WIRE -1952 -1088 -1952 -1216
WIRE -1952 -1088 -2352 -1088
WIRE -1744 -1088 -1744 -1200
WIRE -1744 -1088 -1792 -1088
WIRE -1472 -1088 -1472 -1152
WIRE -1040 -1088 -1040 -1200
WIRE -1040 -1088 -1472 -1088
WIRE -1984 -1072 -1984 -1184
WIRE -1856 -1072 -1984 -1072
WIRE -1008 -1072 -1008 -1168
WIRE -624 -1072 -624 -1200
WIRE -624 -1072 -1008 -1072
WIRE -2160 -1056 -2160 -1200
WIRE -2160 -1056 -2528 -1056
WIRE -1856 -1056 -2160 -1056
WIRE -1504 -1056 -1504 -1184
WIRE -1360 -1056 -1504 -1056
WIRE -1296 -1056 -1296 -1184
WIRE -896 -1056 -1296 -1056
WIRE -1744 -1040 -1744 -1088
WIRE -1360 -1040 -1744 -1040
WIRE -832 -1040 -832 -1184
WIRE -1136 -1024 -1136 -1168
WIRE -896 -1024 -1136 -1024
WIRE -1952 -912 -1952 -1088
WIRE -1536 -912 -1536 -1120
WIRE -1040 -912 -1040 -1088
WIRE -624 -912 -624 -1072
WIRE -2528 -736 -2528 -752
WIRE 0 0 0 0
FLAG -2528 -736 0
FLAG -2592 -1168 0
FLAG -624 -912 X1
IOPIN -624 -912 Out
FLAG -1040 -912 X2
IOPIN -1040 -912 Out
FLAG -1536 -912 X3
IOPIN -1536 -912 Out
FLAG -1952 -912 X4
IOPIN -1952 -912 Out
FLAG -2528 -1056 C
IOPIN -2528 -1056 In
SYMBOL rstriggerfront -2080 -1200 R0
SYMATTR InstName X2
SYMBOL voltage -2528 -848 R0
WINDOW 123 0 0 Left 2
WINDOW 39 0 0 Left 2
SYMATTR InstName V2
SYMATTR Value PULSE(0 1 1n 10p 10p 2n 4n)
SYMBOL Digital\\xor -2272 -1248 R0
SYMATTR InstName A1
SYMBOL voltage -2592 -1264 R0
WINDOW 123 0 0 Left 2
WINDOW 39 0 0 Left 2
SYMATTR InstName V1
SYMATTR Value 1
SYMBOL rstriggerfront -1664 -1200 R0
SYMATTR InstName X1
SYMBOL Digital\\xor -1856 -1248 R0
SYMATTR InstName A2
SYMBOL rstriggerfront -1200 -1184 R0
SYMATTR InstName X3
SYMBOL Digital\\xor -1392 -1232 R0
SYMATTR InstName A3
SYMBOL rstriggerfront -752 -1184 R0
SYMATTR InstName X4
SYMBOL Digital\\xor -944 -1232 R0
SYMATTR InstName A4
SYMBOL Digital\\and -1824 -1136 R0
SYMATTR InstName A5
SYMBOL Digital\\and -1328 -1104 R0
SYMATTR InstName A6
SYMBOL Digital\\and -864 -1088 R0
SYMATTR InstName A7
TEXT -2536 -1376 Left 2 !.include 90nm_bulk.txt
TEXT -2528 -1328 Left 2 !.tran 0 64n 0 1p
