Version 4
SHEET 1 880 680
TEXT -1304 -920 Left 2 !.include 90nm_bulk.txt
TEXT -1296 -872 Left 2 !.tran 0 64n 0 1p
