Version 4
SHEET 1 880 680
WIRE -848 -1072 -1232 -1072
WIRE -848 -976 -848 -1072
WIRE -816 -976 -848 -976
WIRE -784 -864 -784 -928
WIRE -768 -864 -768 -928
WIRE -752 -864 -752 -928
WIRE -736 -864 -736 -928
FLAG -1232 -992 0
SYMBOL Counter -768 -976 R0
SYMATTR InstName X1
SYMBOL voltage -1232 -1088 R0
WINDOW 123 0 0 Left 2
WINDOW 39 0 0 Left 2
SYMATTR InstName V1
SYMATTR Value PULSE(0 1 1n 10p 10p 2n 4n)
TEXT -1304 -920 Left 2 !.include 90nm_bulk.txt
TEXT -1296 -872 Left 2 !.tran 0 64n 0 1p
