Version 4
SHEET 1 1220 680
WIRE 128 -96 -32 -96
WIRE 240 -96 128 -96
WIRE -32 16 -32 -16
WIRE 240 64 240 -96
WIRE 432 64 240 64
WIRE 128 80 128 -96
WIRE 368 128 256 128
WIRE 64 144 -144 144
WIRE 544 144 512 144
WIRE 656 144 544 144
WIRE 256 160 256 128
WIRE 256 160 208 160
WIRE 368 160 336 160
WIRE 64 176 16 176
WIRE 544 224 544 144
WIRE 544 224 320 224
WIRE 240 240 240 64
WIRE 240 240 128 240
WIRE 16 256 16 176
WIRE 16 256 -144 256
WIRE 240 256 240 240
WIRE 432 256 240 256
WIRE 128 272 128 240
WIRE 336 272 336 160
WIRE 544 272 336 272
WIRE 320 320 320 224
WIRE 368 320 320 320
WIRE 16 336 16 256
WIRE 64 336 16 336
WIRE 544 336 544 272
WIRE 544 336 512 336
WIRE 656 336 544 336
WIRE 368 352 208 352
WIRE 64 368 -144 368
FLAG -144 144 S
IOPIN -144 144 In
FLAG -144 368 R
IOPIN -144 368 In
FLAG -144 256 C
IOPIN -144 256 In
FLAG 656 144 Q
IOPIN 656 144 Out
FLAG 656 336 Q1
IOPIN 656 336 Out
FLAG -32 16 0
SYMBOL andnot 144 160 R0
SYMATTR InstName X1
SYMBOL andnot 144 352 R0
SYMATTR InstName X2
SYMBOL andnot 448 144 R0
SYMATTR InstName X3
SYMBOL andnot 448 336 R0
SYMATTR InstName X4
SYMBOL voltage -32 -112 R0
WINDOW 123 0 0 Left 2
WINDOW 39 0 0 Left 2
SYMATTR InstName VDD
SYMATTR Value 1
