Version 4
SHEET 1 880 680
WIRE 48 80 -80 80
WIRE 256 80 176 80
WIRE 448 80 368 80
WIRE 32 112 -80 112
WIRE 48 112 32 112
WIRE 256 112 224 112
WIRE 160 128 160 80
WIRE 256 128 160 128
WIRE 48 144 -80 144
WIRE 176 144 176 80
WIRE 176 144 160 144
WIRE 256 144 256 128
WIRE 448 144 368 144
WIRE 224 224 224 112
WIRE 304 224 224 224
WIRE 208 256 96 256
WIRE 208 272 208 256
WIRE 32 320 32 112
WIRE 144 320 32 320
WIRE 304 320 304 224
WIRE 96 384 96 256
WIRE 0 0 0 0
FLAG -80 80 R
IOPIN -80 80 In
FLAG -80 144 S
IOPIN -80 144 In
FLAG -80 112 C
IOPIN -80 112 In
FLAG 448 80 Q
IOPIN 448 80 Out
FLAG 448 144 Q1
IOPIN 448 144 Out
FLAG 96 384 VDD
IOPIN 96 384 In
SYMBOL rstrigger 112 128 R0
SYMATTR InstName X1
SYMBOL rstrigger 320 128 R0
SYMATTR InstName X2
SYMBOL not 208 320 R0
SYMATTR InstName X4
